14

C         1.11415        0.08415        0.10396
H         0.70262        0.98058        0.58114
H         0.81200        0.10109       -0.94870
C         0.58107       -1.19255        0.76349
H         0.94899       -2.08546        0.24532
C         0.98509       -1.27850        2.24733
O         0.31413       -0.81903        3.16246
O         2.15351       -1.92238        2.46216
H         2.61232       -2.20539        1.64479
N        -0.90160       -1.22257        0.66675
H        -1.27226       -0.46596        1.25046
H        -1.24213       -2.06600        1.13790
S         2.93270        0.21626        0.13270
H         3.02428        0.77577        1.35253
